case123_16.m
function mpc = case_ieee123
%   Power flow data for IEEE 123 bus test case.
%   Please see CASEFORMAT for details on the case file format.
%
%	This testbed is distributed in the hope that it will be useful, but without any warranty.
%	We do request that publications in which this testbed is adopted, explicitly acknowledge that fact by citing:
%
%	S. Bolognani, S. Zampieri (2014)
%	"On the existence and linear approximation of the power flow solution in power distribution networks"
%	Preprint available at http://arxiv.org/abs/1403.5031

%% MATPOWER Case Format : Version 2
mpc.version = '2';

%%-----  Power Flow Data  -----%%
%% system MVA base
mpc.baseMVA = 1;

%% bus data
%	bus_i	type	Pd	Qd	Gs	Bs	area	Vm	Va	baseKV	zone	Vmax	Vmin
mpc.bus = [
	1	1	0.160	0.080	0.000	0.000	1	1	0	4.16	1	1.1	0.9	;
	7	1	0.020	0.010	0.000	0.000	1	1	0	4.16	1	1.1	0.9	;
	8	1	0.120	0.060	0.000	0.000	1	1	0	4.16	1	1.1	0.9	;
	13	1	0.100	0.050	0.000	0.000	1	1	0	4.16	1	1.1	0.9	;
	52	1	0.040	0.020	0.000	0.000	1	1	0	4.16	1	1.1	0.9	;
	53	1	0.040	0.020	0.000	0.000	1	1	0	4.16	1	1.1	0.9	;
	54	1	0.000	0.000	0.000	0.000	1	1	0	4.16	1	1.1	0.9	;
	55	1	0.020	0.010	0.000	0.000	1	1	0	4.16	1	1.1	0.9	;
	56	1	0.020	0.010	0.000	0.000	1	1	0	4.16	1	1.1	0.9	;
	57	1	0.040	0.020	0.000	0.000	1	1	0	4.16	1	1.1	0.9	;
	60	1	0.020	0.010	0.000	0.000	1	1	0	4.16	1	1.1	0.9	;
	62	1	0.040	0.020	0.000	0.000	1	1	0	4.16	1	1.1	0.9	;
	63	1	0.040	0.020	0.000	0.000	1	1	0	4.16	1	1.1	0.9	;
	64	1	0.075	0.035	0.000	0.000	1	1	0	4.16	1	1.1	0.9	;
	65	1	0.140	0.100	0.000	0.000	1	1	0	4.16	1	1.1	0.9	;
	66	1	0.075	0.035	0.000	0.000	1	1	0	4.16	1	1.1	0.9	;
	67	1	0.120	0.060	0.000	0.000	1	1	0	4.16	1	1.1	0.9	;
	72	1	0.120	0.060	0.000	0.000	1	1	0	4.16	1	1.1	0.9	;
	76	1	0.245	0.180	0.000	0.000	1	1	0	4.16	1	1.1	0.9	;
	77	1	0.040	0.020	0.000	0.000	1	1	0	4.16	1	1.1	0.9	;
	78	1	0.000	0.000	0.000	0.000	1	1	0	4.16	1	1.1	0.9	;
	79	1	0.040	0.020	0.000	0.000	1	1	0	4.16	1	1.1	0.9	;
	80	1	0.040	0.020	0.000	0.000	1	1	0	4.16	1	1.1	0.9	;
	81	1	0.060	0.030	0.000	0.000	1	1	0	4.16	1	1.1	0.9	;
	82	1	0.040	0.020	0.000	0.000	1	1	0	4.16	1	1.1	0.9	;
	83	1	0.020	0.010	0.000	0.000	1	1	0	4.16	1	1.1	0.9	;
	86	1	0.020	0.010	0.000	0.000	1	1	0	4.16	1	1.1	0.9	;
	87	1	0.080	0.040	0.000	0.000	1	1	0	4.16	1	1.1	0.9	;
	89	1	0.040	0.020	0.000	0.000	1	1	0	4.16	1	1.1	0.9	;
	91	1	0.040	0.020	0.000	0.000	1	1	0	4.16	1	1.1	0.9	;
	93	1	0.040	0.020	0.000	0.000	1	1	0	4.16	1	1.1	0.9	;
	95	1	0.040	0.020	0.000	0.000	1	1	0	4.16	1	1.1	0.9	;
	97	1	0.000	0.000	0.000	0.000	1	1	0	4.16	1	1.1	0.9	;
	98	1	0.040	0.020	0.000	0.000	1	1	0	4.16	1	1.1	0.9	;
	99	1	0.040	0.020	0.000	0.000	1	1	0	4.16	1	1.1	0.9	;
	100	1	0.040	0.020	0.000	0.000	1	1	0	4.16	1	1.1	0.9	;
	101	1	0.100	0.050	0.000	0.000	1	1	0	4.16	1	1.1	0.9	;
	105	1	0.080	0.040	0.000	0.000	1	1	0	4.16	1	1.1	0.9	;
	108	1	0.140	0.070	0.000	0.000	1	1	0	4.16	1	1.1	0.9	;
	18	1	0.080	0.040	0.000	0.000	1	1	0	4.16	1	1.1	0.9	;
	21	1	0.040	0.020	0.000	0.000	1	1	0	4.16	1	1.1	0.9	;
	23	1	0.040	0.020	0.000	0.000	1	1	0	4.16	1	1.1	0.9	;
	25	1	0.080	0.040	0.000	0.000	1	1	0	4.16	1	1.1	0.9	;
	28	1	0.040	0.020	0.000	0.000	1	1	0	4.16	1	1.1	0.9	;
	29	1	0.040	0.020	0.000	0.000	1	1	0	4.16	1	1.1	0.9	;
	30	1	0.040	0.020	0.000	0.000	1	1	0	4.16	1	1.1	0.9	;
	35	1	0.120	0.060	0.000	0.000	1	1	0	4.16	1	1.1	0.9	;
	40	1	0.020	0.010	0.000	0.000	1	1	0	4.16	1	1.1	0.9	;
	42	1	0.060	0.030	0.000	0.000	1	1	0	4.16	1	1.1	0.9	;
	44	1	0.040	0.020	0.000	0.000	1	1	0	4.16	1	1.1	0.9	;
	47	1	0.105	0.075	0.000	0.000	1	1	0	4.16	1	1.1	0.9	;
	48	1	0.210	0.150	0.000	0.000	1	1	0	4.16	1	1.1	0.9	;
	49	1	0.140	0.095	0.000	0.000	1	1	0	4.16	1	1.1	0.9	;
	50	1	0.040	0.020	0.000	0.000	1	1	0	4.16	1	1.1	0.9	;
	51	1	0.020	0.010	0.000	0.000	1	1	0	4.16	1	1.1	0.9	;
	150	3	0.000	0.000	0.000	0.000	1	1	0	4.16	1	1.1	0.9	;
	61	1	0.000	0.000	0.000	0.000	1	1	0	4.16	1	1.1	0.9	;
	94	1	0.000	0.000	0.000	0.000	1	1	0	4.16	1	1.1	0.9	;
	135	1	0.000	0.000	0.000	0.000	1	1	0	4.16	1	1.1	0.9	;
	149	1	0.000	0.000	0.000	0.000	1	1	0	4.16	1	1.1	0.9	;
	151	1	0.000	0.000	0.000	0.000	1	1	0	4.16	1	1.1	0.9	;
	152	1	0.000	0.000	0.000	0.000	1	1	0	4.16	1	1.1	0.9	;
	160	1	0.000	0.000	0.000	0.000	1	1	0	4.16	1	1.1	0.9	;
	197	1	0.000	0.000	0.000	0.000	1	1	0	4.16	1	1.1	0.9	;
	250	1	0.000	0.000	0.000	0.000	1	1	0	4.16	1	1.1	0.9	;
	300	1	0.000	0.000	0.000	0.000	1	1	0	4.16	1	1.1	0.9	;
	450	1	0.000	0.000	0.000	0.000	1	1	0	4.16	1	1.1	0.9	;
	611	1	0.160	0.080	0.000	0.000	1	1	0	4.16	1	1.1	0.9	;
	617	1	0.020	0.010	0.000	0.000	1	1	0	4.16	1	1.1	0.9	;
	618	1	0.120	0.060	0.000	0.000	1	1	0	4.16	1	1.1	0.9	;
	623	1	0.100	0.050	0.000	0.000	1	1	0	4.16	1	1.1	0.9	;
	662	1	0.040	0.020	0.000	0.000	1	1	0	4.16	1	1.1	0.9	;
	663	1	0.040	0.020	0.000	0.000	1	1	0	4.16	1	1.1	0.9	;
	664	1	0.000	0.000	0.000	0.000	1	1	0	4.16	1	1.1	0.9	;
	665	1	0.020	0.010	0.000	0.000	1	1	0	4.16	1	1.1	0.9	;
	666	1	0.020	0.010	0.000	0.000	1	1	0	4.16	1	1.1	0.9	;
	667	1	0.040	0.020	0.000	0.000	1	1	0	4.16	1	1.1	0.9	;
	670	1	0.020	0.010	0.000	0.000	1	1	0	4.16	1	1.1	0.9	;
	672	1	0.040	0.020	0.000	0.000	1	1	0	4.16	1	1.1	0.9	;
	673	1	0.040	0.020	0.000	0.000	1	1	0	4.16	1	1.1	0.9	;
	674	1	0.075	0.035	0.000	0.000	1	1	0	4.16	1	1.1	0.9	;
	675	1	0.140	0.100	0.000	0.000	1	1	0	4.16	1	1.1	0.9	;
	676	1	0.075	0.035	0.000	0.000	1	1	0	4.16	1	1.1	0.9	;
	677	1	0.120	0.060	0.000	0.000	1	1	0	4.16	1	1.1	0.9	;
	682	1	0.120	0.060	0.000	0.000	1	1	0	4.16	1	1.1	0.9	;
	686	1	0.245	0.180	0.000	0.000	1	1	0	4.16	1	1.1	0.9	;
	687	1	0.040	0.020	0.000	0.000	1	1	0	4.16	1	1.1	0.9	;
	688	1	0.000	0.000	0.000	0.000	1	1	0	4.16	1	1.1	0.9	;
	689	1	0.040	0.020	0.000	0.000	1	1	0	4.16	1	1.1	0.9	;
	690	1	0.040	0.020	0.000	0.000	1	1	0	4.16	1	1.1	0.9	;
	691	1	0.060	0.030	0.000	0.000	1	1	0	4.16	1	1.1	0.9	;
	692	1	0.040	0.020	0.000	0.000	1	1	0	4.16	1	1.1	0.9	;
	693	1	0.020	0.010	0.000	0.000	1	1	0	4.16	1	1.1	0.9	;
	696	1	0.020	0.010	0.000	0.000	1	1	0	4.16	1	1.1	0.9	;
	697	1	0.080	0.040	0.000	0.000	1	1	0	4.16	1	1.1	0.9	;
	699	1	0.040	0.020	0.000	0.000	1	1	0	4.16	1	1.1	0.9	;
	701	1	0.040	0.020	0.000	0.000	1	1	0	4.16	1	1.1	0.9	;
	703	1	0.040	0.020	0.000	0.000	1	1	0	4.16	1	1.1	0.9	;
	705	1	0.040	0.020	0.000	0.000	1	1	0	4.16	1	1.1	0.9	;
	707	1	0.000	0.000	0.000	0.000	1	1	0	4.16	1	1.1	0.9	;
	708	1	0.040	0.020	0.000	0.000	1	1	0	4.16	1	1.1	0.9	;
	709	1	0.040	0.020	0.000	0.000	1	1	0	4.16	1	1.1	0.9	;
	710	1	0.040	0.020	0.000	0.000	1	1	0	4.16	1	1.1	0.9	;
	711	1	0.100	0.050	0.000	0.000	1	1	0	4.16	1	1.1	0.9	;
	715	1	0.080	0.040	0.000	0.000	1	1	0	4.16	1	1.1	0.9	;
	718	1	0.140	0.070	0.000	0.000	1	1	0	4.16	1	1.1	0.9	;
	628	1	0.080	0.040	0.000	0.000	1	1	0	4.16	1	1.1	0.9	;
	631	1	0.040	0.020	0.000	0.000	1	1	0	4.16	1	1.1	0.9	;
	633	1	0.040	0.020	0.000	0.000	1	1	0	4.16	1	1.1	0.9	;
	635	1	0.080	0.040	0.000	0.000	1	1	0	4.16	1	1.1	0.9	;
	638	1	0.040	0.020	0.000	0.000	1	1	0	4.16	1	1.1	0.9	;
	639	1	0.040	0.020	0.000	0.000	1	1	0	4.16	1	1.1	0.9	;
	640	1	0.040	0.020	0.000	0.000	1	1	0	4.16	1	1.1	0.9	;
	645	1	0.120	0.060	0.000	0.000	1	1	0	4.16	1	1.1	0.9	;
	650	1	0.020	0.010	0.000	0.000	1	1	0	4.16	1	1.1	0.9	;
	652	1	0.060	0.030	0.000	0.000	1	1	0	4.16	1	1.1	0.9	;
	654	1	0.040	0.020	0.000	0.000	1	1	0	4.16	1	1.1	0.9	;
	657	1	0.105	0.075	0.000	0.000	1	1	0	4.16	1	1.1	0.9	;
	658	1	0.210	0.150	0.000	0.000	1	1	0	4.16	1	1.1	0.9	;
	659	1	0.140	0.095	0.000	0.000	1	1	0	4.16	1	1.1	0.9	;
	660	1	0.040	0.020	0.000	0.000	1	1	0	4.16	1	1.1	0.9	;
	661	1	0.020	0.010	0.000	0.000	1	1	0	4.16	1	1.1	0.9	;
	760	3	0.000	0.000	0.000	0.000	1	1	0	4.16	1	1.1	0.9	;
	671	1	0.000	0.000	0.000	0.000	1	1	0	4.16	1	1.1	0.9	;
	704	1	0.000	0.000	0.000	0.000	1	1	0	4.16	1	1.1	0.9	;
	745	1	0.000	0.000	0.000	0.000	1	1	0	4.16	1	1.1	0.9	;
	759	1	0.000	0.000	0.000	0.000	1	1	0	4.16	1	1.1	0.9	;
	761	1	0.000	0.000	0.000	0.000	1	1	0	4.16	1	1.1	0.9	;
	762	1	0.000	0.000	0.000	0.000	1	1	0	4.16	1	1.1	0.9	;
	770	1	0.000	0.000	0.000	0.000	1	1	0	4.16	1	1.1	0.9	;
	807	1	0.000	0.000	0.000	0.000	1	1	0	4.16	1	1.1	0.9	;
	860	1	0.000	0.000	0.000	0.000	1	1	0	4.16	1	1.1	0.9	;
	910	1	0.000	0.000	0.000	0.000	1	1	0	4.16	1	1.1	0.9	;
	1060	1	0.000	0.000	0.000	0.000	1	1	0	4.16	1	1.1	0.9	;
	1221	1	0.160	0.080	0.000	0.000	1	1	0	4.16	1	1.1	0.9	;
	1227	1	0.020	0.010	0.000	0.000	1	1	0	4.16	1	1.1	0.9	;
	1228	1	0.120	0.060	0.000	0.000	1	1	0	4.16	1	1.1	0.9	;
	1233	1	0.100	0.050	0.000	0.000	1	1	0	4.16	1	1.1	0.9	;
	1272	1	0.040	0.020	0.000	0.000	1	1	0	4.16	1	1.1	0.9	;
	1273	1	0.040	0.020	0.000	0.000	1	1	0	4.16	1	1.1	0.9	;
	1274	1	0.000	0.000	0.000	0.000	1	1	0	4.16	1	1.1	0.9	;
	1275	1	0.020	0.010	0.000	0.000	1	1	0	4.16	1	1.1	0.9	;
	1276	1	0.020	0.010	0.000	0.000	1	1	0	4.16	1	1.1	0.9	;
	1277	1	0.040	0.020	0.000	0.000	1	1	0	4.16	1	1.1	0.9	;
	1280	1	0.020	0.010	0.000	0.000	1	1	0	4.16	1	1.1	0.9	;
	1282	1	0.040	0.020	0.000	0.000	1	1	0	4.16	1	1.1	0.9	;
	1283	1	0.040	0.020	0.000	0.000	1	1	0	4.16	1	1.1	0.9	;
	1284	1	0.075	0.035	0.000	0.000	1	1	0	4.16	1	1.1	0.9	;
	1285	1	0.140	0.100	0.000	0.000	1	1	0	4.16	1	1.1	0.9	;
	1286	1	0.075	0.035	0.000	0.000	1	1	0	4.16	1	1.1	0.9	;
	1287	1	0.120	0.060	0.000	0.000	1	1	0	4.16	1	1.1	0.9	;
	1292	1	0.120	0.060	0.000	0.000	1	1	0	4.16	1	1.1	0.9	;
	1296	1	0.245	0.180	0.000	0.000	1	1	0	4.16	1	1.1	0.9	;
	1297	1	0.040	0.020	0.000	0.000	1	1	0	4.16	1	1.1	0.9	;
	1298	1	0.000	0.000	0.000	0.000	1	1	0	4.16	1	1.1	0.9	;
	1299	1	0.040	0.020	0.000	0.000	1	1	0	4.16	1	1.1	0.9	;
	1300	1	0.040	0.020	0.000	0.000	1	1	0	4.16	1	1.1	0.9	;
	1301	1	0.060	0.030	0.000	0.000	1	1	0	4.16	1	1.1	0.9	;
	1302	1	0.040	0.020	0.000	0.000	1	1	0	4.16	1	1.1	0.9	;
	1303	1	0.020	0.010	0.000	0.000	1	1	0	4.16	1	1.1	0.9	;
	1306	1	0.020	0.010	0.000	0.000	1	1	0	4.16	1	1.1	0.9	;
	1307	1	0.080	0.040	0.000	0.000	1	1	0	4.16	1	1.1	0.9	;
	1309	1	0.040	0.020	0.000	0.000	1	1	0	4.16	1	1.1	0.9	;
	1311	1	0.040	0.020	0.000	0.000	1	1	0	4.16	1	1.1	0.9	;
	1313	1	0.040	0.020	0.000	0.000	1	1	0	4.16	1	1.1	0.9	;
	1315	1	0.040	0.020	0.000	0.000	1	1	0	4.16	1	1.1	0.9	;
	1317	1	0.000	0.000	0.000	0.000	1	1	0	4.16	1	1.1	0.9	;
	1318	1	0.040	0.020	0.000	0.000	1	1	0	4.16	1	1.1	0.9	;
	1319	1	0.040	0.020	0.000	0.000	1	1	0	4.16	1	1.1	0.9	;
	1320	1	0.040	0.020	0.000	0.000	1	1	0	4.16	1	1.1	0.9	;
	1321	1	0.100	0.050	0.000	0.000	1	1	0	4.16	1	1.1	0.9	;
	1325	1	0.080	0.040	0.000	0.000	1	1	0	4.16	1	1.1	0.9	;
	1328	1	0.140	0.070	0.000	0.000	1	1	0	4.16	1	1.1	0.9	;
	1238	1	0.080	0.040	0.000	0.000	1	1	0	4.16	1	1.1	0.9	;
	1241	1	0.040	0.020	0.000	0.000	1	1	0	4.16	1	1.1	0.9	;
	1243	1	0.040	0.020	0.000	0.000	1	1	0	4.16	1	1.1	0.9	;
	1245	1	0.080	0.040	0.000	0.000	1	1	0	4.16	1	1.1	0.9	;
	1248	1	0.040	0.020	0.000	0.000	1	1	0	4.16	1	1.1	0.9	;
	1249	1	0.040	0.020	0.000	0.000	1	1	0	4.16	1	1.1	0.9	;
	1250	1	0.040	0.020	0.000	0.000	1	1	0	4.16	1	1.1	0.9	;
	1255	1	0.120	0.060	0.000	0.000	1	1	0	4.16	1	1.1	0.9	;
	1260	1	0.020	0.010	0.000	0.000	1	1	0	4.16	1	1.1	0.9	;
	1262	1	0.060	0.030	0.000	0.000	1	1	0	4.16	1	1.1	0.9	;
	1264	1	0.040	0.020	0.000	0.000	1	1	0	4.16	1	1.1	0.9	;
	1267	1	0.105	0.075	0.000	0.000	1	1	0	4.16	1	1.1	0.9	;
	1268	1	0.210	0.150	0.000	0.000	1	1	0	4.16	1	1.1	0.9	;
	1269	1	0.140	0.095	0.000	0.000	1	1	0	4.16	1	1.1	0.9	;
	1270	1	0.040	0.020	0.000	0.000	1	1	0	4.16	1	1.1	0.9	;
	1271	1	0.020	0.010	0.000	0.000	1	1	0	4.16	1	1.1	0.9	;
	1370	3	0.000	0.000	0.000	0.000	1	1	0	4.16	1	1.1	0.9	;
	1281	1	0.000	0.000	0.000	0.000	1	1	0	4.16	1	1.1	0.9	;
	1314	1	0.000	0.000	0.000	0.000	1	1	0	4.16	1	1.1	0.9	;
	1355	1	0.000	0.000	0.000	0.000	1	1	0	4.16	1	1.1	0.9	;
	1369	1	0.000	0.000	0.000	0.000	1	1	0	4.16	1	1.1	0.9	;
	1371	1	0.000	0.000	0.000	0.000	1	1	0	4.16	1	1.1	0.9	;
	1372	1	0.000	0.000	0.000	0.000	1	1	0	4.16	1	1.1	0.9	;
	1380	1	0.000	0.000	0.000	0.000	1	1	0	4.16	1	1.1	0.9	;
	1417	1	0.000	0.000	0.000	0.000	1	1	0	4.16	1	1.1	0.9	;
	1470	1	0.000	0.000	0.000	0.000	1	1	0	4.16	1	1.1	0.9	;
	1520	1	0.000	0.000	0.000	0.000	1	1	0	4.16	1	1.1	0.9	;
...

%copy 2


	4561	1	0.160	0.080	0.000	0.000	1	1	0	4.16	1	1.1	0.9	;
	4567	1	0.020	0.010	0.000	0.000	1	1	0	4.16	1	1.1	0.9	;
	4568	1	0.120	0.060	0.000	0.000	1	1	0	4.16	1	1.1	0.9	;
	4573	1	0.100	0.050	0.000	0.000	1	1	0	4.16	1	1.1	0.9	;
	4612	1	0.040	0.020	0.000	0.000	1	1	0	4.16	1	1.1	0.9	;
	4613	1	0.040	0.020	0.000	0.000	1	1	0	4.16	1	1.1	0.9	;
	4614	1	0.000	0.000	0.000	0.000	1	1	0	4.16	1	1.1	0.9	;
	4615	1	0.020	0.010	0.000	0.000	1	1	0	4.16	1	1.1	0.9	;
	4616	1	0.020	0.010	0.000	0.000	1	1	0	4.16	1	1.1	0.9	;
	4617	1	0.040	0.020	0.000	0.000	1	1	0	4.16	1	1.1	0.9	;
	4620	1	0.020	0.010	0.000	0.000	1	1	0	4.16	1	1.1	0.9	;
	4622	1	0.040	0.020	0.000	0.000	1	1	0	4.16	1	1.1	0.9	;
	4623	1	0.040	0.020	0.000	0.000	1	1	0	4.16	1	1.1	0.9	;
	4624	1	0.075	0.035	0.000	0.000	1	1	0	4.16	1	1.1	0.9	;
	4625	1	0.140	0.100	0.000	0.000	1	1	0	4.16	1	1.1	0.9	;
	4626	1	0.075	0.035	0.000	0.000	1	1	0	4.16	1	1.1	0.9	;
	4627	1	0.120	0.060	0.000	0.000	1	1	0	4.16	1	1.1	0.9	;
	4632	1	0.120	0.060	0.000	0.000	1	1	0	4.16	1	1.1	0.9	;
	4636	1	0.245	0.180	0.000	0.000	1	1	0	4.16	1	1.1	0.9	;
	4637	1	0.040	0.020	0.000	0.000	1	1	0	4.16	1	1.1	0.9	;
	4638	1	0.000	0.000	0.000	0.000	1	1	0	4.16	1	1.1	0.9	;
	4639	1	0.040	0.020	0.000	0.000	1	1	0	4.16	1	1.1	0.9	;
	4640	1	0.040	0.020	0.000	0.000	1	1	0	4.16	1	1.1	0.9	;
	4641	1	0.060	0.030	0.000	0.000	1	1	0	4.16	1	1.1	0.9	;
	4642	1	0.040	0.020	0.000	0.000	1	1	0	4.16	1	1.1	0.9	;
	4643	1	0.020	0.010	0.000	0.000	1	1	0	4.16	1	1.1	0.9	;
	4646	1	0.020	0.010	0.000	0.000	1	1	0	4.16	1	1.1	0.9	;
	4647	1	0.080	0.040	0.000	0.000	1	1	0	4.16	1	1.1	0.9	;
	4649	1	0.040	0.020	0.000	0.000	1	1	0	4.16	1	1.1	0.9	;
	4651	1	0.040	0.020	0.000	0.000	1	1	0	4.16	1	1.1	0.9	;
	4653	1	0.040	0.020	0.000	0.000	1	1	0	4.16	1	1.1	0.9	;
	4655	1	0.040	0.020	0.000	0.000	1	1	0	4.16	1	1.1	0.9	;
	4657	1	0.000	0.000	0.000	0.000	1	1	0	4.16	1	1.1	0.9	;
	4658	1	0.040	0.020	0.000	0.000	1	1	0	4.16	1	1.1	0.9	;
	4659	1	0.040	0.020	0.000	0.000	1	1	0	4.16	1	1.1	0.9	;
	4660	1	0.040	0.020	0.000	0.000	1	1	0	4.16	1	1.1	0.9	;
	4661	1	0.100	0.050	0.000	0.000	1	1	0	4.16	1	1.1	0.9	;
	4665	1	0.080	0.040	0.000	0.000	1	1	0	4.16	1	1.1	0.9	;
	4668	1	0.140	0.070	0.000	0.000	1	1	0	4.16	1	1.1	0.9	;
	4578	1	0.080	0.040	0.000	0.000	1	1	0	4.16	1	1.1	0.9	;
	4581	1	0.040	0.020	0.000	0.000	1	1	0	4.16	1	1.1	0.9	;
	4583	1	0.040	0.020	0.000	0.000	1	1	0	4.16	1	1.1	0.9	;
	4585	1	0.080	0.040	0.000	0.000	1	1	0	4.16	1	1.1	0.9	;
	4588	1	0.040	0.020	0.000	0.000	1	1	0	4.16	1	1.1	0.9	;
	4589	1	0.040	0.020	0.000	0.000	1	1	0	4.16	1	1.1	0.9	;
	4590	1	0.040	0.020	0.000	0.000	1	1	0	4.16	1	1.1	0.9	;
	4595	1	0.120	0.060	0.000	0.000	1	1	0	4.16	1	1.1	0.9	;
	4600	1	0.020	0.010	0.000	0.000	1	1	0	4.16	1	1.1	0.9	;
	4602	1	0.060	0.030	0.000	0.000	1	1	0	4.16	1	1.1	0.9	;
	4604	1	0.040	0.020	0.000	0.000	1	1	0	4.16	1	1.1	0.9	;
	4607	1	0.105	0.075	0.000	0.000	1	1	0	4.16	1	1.1	0.9	;
	4608	1	0.210	0.150	0.000	0.000	1	1	0	4.16	1	1.1	0.9	;
	4609	1	0.140	0.095	0.000	0.000	1	1	0	4.16	1	1.1	0.9	;
	4610	1	0.040	0.020	0.000	0.000	1	1	0	4.16	1	1.1	0.9	;
	4611	1	0.020	0.010	0.000	0.000	1	1	0	4.16	1	1.1	0.9	;
	4710	3	0.000	0.000	0.000	0.000	1	1	0	4.16	1	1.1	0.9	;
	4621	1	0.000	0.000	0.000	0.000	1	1	0	4.16	1	1.1	0.9	;
	4654	1	0.000	0.000	0.000	0.000	1	1	0	4.16	1	1.1	0.9	;
	4695	1	0.000	0.000	0.000	0.000	1	1	0	4.16	1	1.1	0.9	;
	4709	1	0.000	0.000	0.000	0.000	1	1	0	4.16	1	1.1	0.9	;
	4711	1	0.000	0.000	0.000	0.000	1	1	0	4.16	1	1.1	0.9	;
	4712	1	0.000	0.000	0.000	0.000	1	1	0	4.16	1	1.1	0.9	;
	4720	1	0.000	0.000	0.000	0.000	1	1	0	4.16	1	1.1	0.9	;
	4757	1	0.000	0.000	0.000	0.000	1	1	0	4.16	1	1.1	0.9	;
	4810	1	0.000	0.000	0.000	0.000	1	1	0	4.16	1	1.1	0.9	;
	4860	1	0.000	0.000	0.000	0.000	1	1	0	4.16	1	1.1	0.9	;
	5010	1	0.000	0.000	0.000	0.000	1	1	0	4.16	1	1.1	0.9	;
	5171	1	0.160	0.080	0.000	0.000	1	1	0	4.16	1	1.1	0.9	;
	5177	1	0.020	0.010	0.000	0.000	1	1	0	4.16	1	1.1	0.9	;
	5178	1	0.120	0.060	0.000	0.000	1	1	0	4.16	1	1.1	0.9	;
	5183	1	0.100	0.050	0.000	0.000	1	1	0	4.16	1	1.1	0.9	;
	5222	1	0.040	0.020	0.000	0.000	1	1	0	4.16	1	1.1	0.9	;
	5223	1	0.040	0.020	0.000	0.000	1	1	0	4.16	1	1.1	0.9	;
	5224	1	0.000	0.000	0.000	0.000	1	1	0	4.16	1	1.1	0.9	;
	5225	1	0.020	0.010	0.000	0.000	1	1	0	4.16	1	1.1	0.9	;
	5226	1	0.020	0.010	0.000	0.000	1	1	0	4.16	1	1.1	0.9	;
	5227	1	0.040	0.020	0.000	0.000	1	1	0	4.16	1	1.1	0.9	;
	5230	1	0.020	0.010	0.000	0.000	1	1	0	4.16	1	1.1	0.9	;
	5232	1	0.040	0.020	0.000	0.000	1	1	0	4.16	1	1.1	0.9	;
	5233	1	0.040	0.020	0.000	0.000	1	1	0	4.16	1	1.1	0.9	;
	5234	1	0.075	0.035	0.000	0.000	1	1	0	4.16	1	1.1	0.9	;
	5235	1	0.140	0.100	0.000	0.000	1	1	0	4.16	1	1.1	0.9	;
	5236	1	0.075	0.035	0.000	0.000	1	1	0	4.16	1	1.1	0.9	;
	5237	1	0.120	0.060	0.000	0.000	1	1	0	4.16	1	1.1	0.9	;
	5242	1	0.120	0.060	0.000	0.000	1	1	0	4.16	1	1.1	0.9	;
	5246	1	0.245	0.180	0.000	0.000	1	1	0	4.16	1	1.1	0.9	;
	5247	1	0.040	0.020	0.000	0.000	1	1	0	4.16	1	1.1	0.9	;
	5248	1	0.000	0.000	0.000	0.000	1	1	0	4.16	1	1.1	0.9	;
	5249	1	0.040	0.020	0.000	0.000	1	1	0	4.16	1	1.1	0.9	;
	5250	1	0.040	0.020	0.000	0.000	1	1	0	4.16	1	1.1	0.9	;
	5251	1	0.060	0.030	0.000	0.000	1	1	0	4.16	1	1.1	0.9	;
	5252	1	0.040	0.020	0.000	0.000	1	1	0	4.16	1	1.1	0.9	;
	5253	1	0.020	0.010	0.000	0.000	1	1	0	4.16	1	1.1	0.9	;
	5256	1	0.020	0.010	0.000	0.000	1	1	0	4.16	1	1.1	0.9	;
	5257	1	0.080	0.040	0.000	0.000	1	1	0	4.16	1	1.1	0.9	;
	5259	1	0.040	0.020	0.000	0.000	1	1	0	4.16	1	1.1	0.9	;
	5261	1	0.040	0.020	0.000	0.000	1	1	0	4.16	1	1.1	0.9	;
	5263	1	0.040	0.020	0.000	0.000	1	1	0	4.16	1	1.1	0.9	;
	5265	1	0.040	0.020	0.000	0.000	1	1	0	4.16	1	1.1	0.9	;
	5267	1	0.000	0.000	0.000	0.000	1	1	0	4.16	1	1.1	0.9	;
	5268	1	0.040	0.020	0.000	0.000	1	1	0	4.16	1	1.1	0.9	;
	5269	1	0.040	0.020	0.000	0.000	1	1	0	4.16	1	1.1	0.9	;
	5270	1	0.040	0.020	0.000	0.000	1	1	0	4.16	1	1.1	0.9	;
	5271	1	0.100	0.050	0.000	0.000	1	1	0	4.16	1	1.1	0.9	;
	5275	1	0.080	0.040	0.000	0.000	1	1	0	4.16	1	1.1	0.9	;
	5278	1	0.140	0.070	0.000	0.000	1	1	0	4.16	1	1.1	0.9	;
	5188	1	0.080	0.040	0.000	0.000	1	1	0	4.16	1	1.1	0.9	;
	5191	1	0.040	0.020	0.000	0.000	1	1	0	4.16	1	1.1	0.9	;
	5193	1	0.040	0.020	0.000	0.000	1	1	0	4.16	1	1.1	0.9	;
	5195	1	0.080	0.040	0.000	0.000	1	1	0	4.16	1	1.1	0.9	;
	5198	1	0.040	0.020	0.000	0.000	1	1	0	4.16	1	1.1	0.9	;
	5199	1	0.040	0.020	0.000	0.000	1	1	0	4.16	1	1.1	0.9	;
	5200	1	0.040	0.020	0.000	0.000	1	1	0	4.16	1	1.1	0.9	;
	5205	1	0.120	0.060	0.000	0.000	1	1	0	4.16	1	1.1	0.9	;
	5210	1	0.020	0.010	0.000	0.000	1	1	0	4.16	1	1.1	0.9	;
	5212	1	0.060	0.030	0.000	0.000	1	1	0	4.16	1	1.1	0.9	;
	5214	1	0.040	0.020	0.000	0.000	1	1	0	4.16	1	1.1	0.9	;
	5217	1	0.105	0.075	0.000	0.000	1	1	0	4.16	1	1.1	0.9	;
	5218	1	0.210	0.150	0.000	0.000	1	1	0	4.16	1	1.1	0.9	;
	5219	1	0.140	0.095	0.000	0.000	1	1	0	4.16	1	1.1	0.9	;
	5220	1	0.040	0.020	0.000	0.000	1	1	0	4.16	1	1.1	0.9	;
	5221	1	0.020	0.010	0.000	0.000	1	1	0	4.16	1	1.1	0.9	;
	5320	3	0.000	0.000	0.000	0.000	1	1	0	4.16	1	1.1	0.9	;
	5231	1	0.000	0.000	0.000	0.000	1	1	0	4.16	1	1.1	0.9	;
	5264	1	0.000	0.000	0.000	0.000	1	1	0	4.16	1	1.1	0.9	;
	5305	1	0.000	0.000	0.000	0.000	1	1	0	4.16	1	1.1	0.9	;
	5319	1	0.000	0.000	0.000	0.000	1	1	0	4.16	1	1.1	0.9	;
	5321	1	0.000	0.000	0.000	0.000	1	1	0	4.16	1	1.1	0.9	;
	5322	1	0.000	0.000	0.000	0.000	1	1	0	4.16	1	1.1	0.9	;
	5330	1	0.000	0.000	0.000	0.000	1	1	0	4.16	1	1.1	0.9	;
	5367	1	0.000	0.000	0.000	0.000	1	1	0	4.16	1	1.1	0.9	;
	5420	1	0.000	0.000	0.000	0.000	1	1	0	4.16	1	1.1	0.9	;
	5470	1	0.000	0.000	0.000	0.000	1	1	0	4.16	1	1.1	0.9	;
	5620	1	0.000	0.000	0.000	0.000	1	1	0	4.16	1	1.1	0.9	;
	5781	1	0.160	0.080	0.000	0.000	1	1	0	4.16	1	1.1	0.9	;
	5787	1	0.020	0.010	0.000	0.000	1	1	0	4.16	1	1.1	0.9	;
	5788	1	0.120	0.060	0.000	0.000	1	1	0	4.16	1	1.1	0.9	;
	5793	1	0.100	0.050	0.000	0.000	1	1	0	4.16	1	1.1	0.9	;
	5832	1	0.040	0.020	0.000	0.000	1	1	0	4.16	1	1.1	0.9	;
	5833	1	0.040	0.020	0.000	0.000	1	1	0	4.16	1	1.1	0.9	;
	5834	1	0.000	0.000	0.000	0.000	1	1	0	4.16	1	1.1	0.9	;
	5835	1	0.020	0.010	0.000	0.000	1	1	0	4.16	1	1.1	0.9	;
	5836	1	0.020	0.010	0.000	0.000	1	1	0	4.16	1	1.1	0.9	;
	5837	1	0.040	0.020	0.000	0.000	1	1	0	4.16	1	1.1	0.9	;
	5840	1	0.020	0.010	0.000	0.000	1	1	0	4.16	1	1.1	0.9	;
	5842	1	0.040	0.020	0.000	0.000	1	1	0	4.16	1	1.1	0.9	;
	5843	1	0.040	0.020	0.000	0.000	1	1	0	4.16	1	1.1	0.9	;
	5844	1	0.075	0.035	0.000	0.000	1	1	0	4.16	1	1.1	0.9	;
	5845	1	0.140	0.100	0.000	0.000	1	1	0	4.16	1	1.1	0.9	;
	5846	1	0.075	0.035	0.000	0.000	1	1	0	4.16	1	1.1	0.9	;
	5847	1	0.120	0.060	0.000	0.000	1	1	0	4.16	1	1.1	0.9	;
	5852	1	0.120	0.060	0.000	0.000	1	1	0	4.16	1	1.1	0.9	;
	5856	1	0.245	0.180	0.000	0.000	1	1	0	4.16	1	1.1	0.9	;
	5857	1	0.040	0.020	0.000	0.000	1	1	0	4.16	1	1.1	0.9	;
	5858	1	0.000	0.000	0.000	0.000	1	1	0	4.16	1	1.1	0.9	;
	5859	1	0.040	0.020	0.000	0.000	1	1	0	4.16	1	1.1	0.9	;
	5860	1	0.040	0.020	0.000	0.000	1	1	0	4.16	1	1.1	0.9	;
	5861	1	0.060	0.030	0.000	0.000	1	1	0	4.16	1	1.1	0.9	;
	5862	1	0.040	0.020	0.000	0.000	1	1	0	4.16	1	1.1	0.9	;
	5863	1	0.020	0.010	0.000	0.000	1	1	0	4.16	1	1.1	0.9	;
	5866	1	0.020	0.010	0.000	0.000	1	1	0	4.16	1	1.1	0.9	;
	5867	1	0.080	0.040	0.000	0.000	1	1	0	4.16	1	1.1	0.9	;
	5869	1	0.040	0.020	0.000	0.000	1	1	0	4.16	1	1.1	0.9	;
	5871	1	0.040	0.020	0.000	0.000	1	1	0	4.16	1	1.1	0.9	;
	5873	1	0.040	0.020	0.000	0.000	1	1	0	4.16	1	1.1	0.9	;
	5875	1	0.040	0.020	0.000	0.000	1	1	0	4.16	1	1.1	0.9	;
	5877	1	0.000	0.000	0.000	0.000	1	1	0	4.16	1	1.1	0.9	;
	5878	1	0.040	0.020	0.000	0.000	1	1	0	4.16	1	1.1	0.9	;
	5879	1	0.040	0.020	0.000	0.000	1	1	0	4.16	1	1.1	0.9	;
	5880	1	0.040	0.020	0.000	0.000	1	1	0	4.16	1	1.1	0.9	;
	5881	1	0.100	0.050	0.000	0.000	1	1	0	4.16	1	1.1	0.9	;
	5885	1	0.080	0.040	0.000	0.000	1	1	0	4.16	1	1.1	0.9	;
	5888	1	0.140	0.070	0.000	0.000	1	1	0	4.16	1	1.1	0.9	;
	5798	1	0.080	0.040	0.000	0.000	1	1	0	4.16	1	1.1	0.9	;
	5801	1	0.040	0.020	0.000	0.000	1	1	0	4.16	1	1.1	0.9	;
	5803	1	0.040	0.020	0.000	0.000	1	1	0	4.16	1	1.1	0.9	;
	5805	1	0.080	0.040	0.000	0.000	1	1	0	4.16	1	1.1	0.9	;
	5808	1	0.040	0.020	0.000	0.000	1	1	0	4.16	1	1.1	0.9	;
	5809	1	0.040	0.020	0.000	0.000	1	1	0	4.16	1	1.1	0.9	;
	5810	1	0.040	0.020	0.000	0.000	1	1	0	4.16	1	1.1	0.9	;
	5815	1	0.120	0.060	0.000	0.000	1	1	0	4.16	1	1.1	0.9	;
	5820	1	0.020	0.010	0.000	0.000	1	1	0	4.16	1	1.1	0.9	;
	5822	1	0.060	0.030	0.000	0.000	1	1	0	4.16	1	1.1	0.9	;
	5824	1	0.040	0.020	0.000	0.000	1	1	0	4.16	1	1.1	0.9	;
	5827	1	0.105	0.075	0.000	0.000	1	1	0	4.16	1	1.1	0.9	;
	5828	1	0.210	0.150	0.000	0.000	1	1	0	4.16	1	1.1	0.9	;
	5829	1	0.140	0.095	0.000	0.000	1	1	0	4.16	1	1.1	0.9	;
	5830	1	0.040	0.020	0.000	0.000	1	1	0	4.16	1	1.1	0.9	;
	5831	1	0.020	0.010	0.000	0.000	1	1	0	4.16	1	1.1	0.9	;
	5930	3	0.000	0.000	0.000	0.000	1	1	0	4.16	1	1.1	0.9	;
	5841	1	0.000	0.000	0.000	0.000	1	1	0	4.16	1	1.1	0.9	;
	5874	1	0.000	0.000	0.000	0.000	1	1	0	4.16	1	1.1	0.9	;
	5915	1	0.000	0.000	0.000	0.000	1	1	0	4.16	1	1.1	0.9	;
	5929	1	0.000	0.000	0.000	0.000	1	1	0	4.16	1	1.1	0.9	;
	5931	1	0.000	0.000	0.000	0.000	1	1	0	4.16	1	1.1	0.9	;
	5932	1	0.000	0.000	0.000	0.000	1	1	0	4.16	1	1.1	0.9	;
	5940	1	0.000	0.000	0.000	0.000	1	1	0	4.16	1	1.1	0.9	;
	5977	1	0.000	0.000	0.000	0.000	1	1	0	4.16	1	1.1	0.9	;
	6030	1	0.000	0.000	0.000	0.000	1	1	0	4.16	1	1.1	0.9	;
	6080	1	0.000	0.000	0.000	0.000	1	1	0	4.16	1	1.1	0.9	;
...
];

%% generator data
%	bus	Pg	Qg	Qmax	Qmin	Vg	mBase	status	Pmax	Pmin	Pc1	Pc2	Qc1min	Qc1max	Qc2min	Qc2max	ramp_agc	ramp_10	ramp_30	ramp_q	apf
mpc.gen = [
	150	0	0	200	-200	1	1	1	200	-200	0	0	0	0	0	0	0	0	0	0	0;
	760	0	0	200	-200	1	1	1	200	-200	0	0	0	0	0	0	0	0	0	0	0;
	1370	0	0	200	-200	1	1	1	200	-200	0	0	0	0	0	0	0	0	0	0	0;
	1980	0	0	200	-200	1	1	1	200	-200	0	0	0	0	0	0	0	0	0	0	0;
	2430	0	0	200	-200	1	1	1	200	-200	0	0	0	0	0	0	0	0	0	0	0;
	3040	0	0	200	-200	1	1	1	200	-200	0	0	0	0	0	0	0	0	0	0	0;
	3650	0	0	200	-200	1	1	1	200	-200	0	0	0	0	0	0	0	0	0	0	0;
	4260	0	0	200	-200	1	1	1	200	-200	0	0	0	0	0	0	0	0	0	0	0;

%copy 2

	4710	0	0	200	-200	1	1	1	200	-200	0	0	0	0	0	0	0	0	0	0	0;
	5320	0	0	200	-200	1	1	1	200	-200	0	0	0	0	0	0	0	0	0	0	0;
	5930	0	0	200	-200	1	1	1	200	-200	0	0	0	0	0	0	0	0	0	0	0;
	6540	0	0	200	-200	1	1	1	200	-200	0	0	0	0	0	0	0	0	0	0	0;
	6990	0	0	200	-200	1	1	1	200	-200	0	0	0	0	0	0	0	0	0	0	0;
	7600	0	0	200	-200	1	1	1	200	-200	0	0	0	0	0	0	0	0	0	0	0;
	8210	0	0	200	-200	1	1	1	200	-200	0	0	0	0	0	0	0	0	0	0	0;
	8820	0	0	200	-200	1	1	1	200	-200	0	0	0	0	0	0	0	0	0	0	0;
];

%% branch data
%	fbus	tbus	r	x	b	rateA	rateB	rateC	ratio	angle	status	angmin	angmax
mpc.branch = [
	1	7	0.0010048967	0.0020588120	2.27077703696544E-008	100	100	100	0	0	1	-360	360	;
	7	8	0.0006699312	0.0013725413	1.51385135797696E-008	100	100	100	0	0	1	-360	360	;
	8	13	0.0010048967	0.0020588120	2.27077703696544E-008	100	100	100	0	0	1	-360	360	;
	52	53	0.0006699312	0.0013725413	1.51385135797696E-008	100	100	100	0	0	1	-360	360	;
	53	54	0.0004187070	0.0008578383	9.46157098735599E-009	100	100	100	0	0	1	-360	360	;
	54	55	0.0009211553	0.0018872444	2.08154561721832E-008	100	100	100	0	0	1	-360	360	;
	55	56	0.0009211553	0.0018872444	2.08154561721832E-008	100	100	100	0	0	1	-360	360	;
	54	57	0.0011723795	0.0024019474	2.64923987645968E-008	100	100	100	0	0	1	-360	360	;
	57	60	0.0025122418	0.0051470300	5.67694259241360E-008	100	100	100	0	0	1	-360	360	;
	60	62	0.0027749546	0.0013221274	1.83926822251266E-007	100	100	100	0	0	1	-360	360	;
	62	63	0.0019424682	0.0009254892	1.28748775575886E-007	100	100	100	0	0	1	-360	360	;
	63	64	0.0038849364	0.0018509784	2.57497551151773E-007	100	100	100	0	0	1	-360	360	;
	64	65	0.0047174228	0.0022476166	3.12675597827153E-007	100	100	100	0	0	1	-360	360	;
	65	66	0.0036074409	0.0017187657	2.39104868926646E-007	100	100	100	0	0	1	-360	360	;
	67	72	0.0009211553	0.0018872444	2.08154561721832E-008	100	100	100	0	0	1	-360	360	;
	72	76	0.0006699312	0.0013725413	1.51385135797696E-008	100	100	100	0	0	1	-360	360	;
	76	77	0.0013398623	0.0027450827	3.02770271595392E-008	100	100	100	0	0	1	-360	360	;
	77	78	0.0003349656	0.0006862707	7.56925678988480E-009	100	100	100	0	0	1	-360	360	;
	78	79	0.0007536726	0.0015441090	1.70000000000000E-008	100	100	100	0	0	1	-360	360	;
	78	80	0.0015910865	0.0032597857	3.60000000000000E-008	100	100	100	0	0	1	-360	360	;
	80	81	0.0015910865	0.0032597857	3.60000000000000E-008	100	100	100	0	0	1	-360	360	;
	81	82	0.0008374139	0.0017156767	1.89231419747120E-008	100	100	100	0	0	1	-360	360	;
	82	83	0.0008374139	0.0017156767	1.89231419747120E-008	100	100	100	0	0	1	-360	360	;
	76	86	0.0023447590	0.0048038947	5.30000000000000E-008	100	100	100	0	0	1	-360	360	;
	86	87	0.0015073451	0.0030882180	3.40616555544816E-008	100	100	100	0	0	1	-360	360	;
	87	89	0.0009211553	0.0018872444	2.08154561721832E-008	100	100	100	0	0	1	-360	360	;
	89	91	0.0007536726	0.0015441090	1.70000000000000E-008	100	100	100	0	0	1	-360	360	;
	91	93	0.0007536726	0.0015441090	1.70000000000000E-008	100	100	100	0	0	1	-360	360	;
	93	95	0.0010048967	0.0020588120	2.27077703696544E-008	100	100	100	0	0	1	-360	360	;
	67	97	0.0008374139	0.0017156767	1.89231419747120E-008	100	100	100	0	0	1	-360	360	;
	97	98	0.0009211553	0.0018872444	2.08154561721832E-008	100	100	100	0	0	1	-360	360	;
	98	99	0.0018423107	0.0037744887	4.16309123443664E-008	100	100	100	0	0	1	-360	360	;
	99	100	0.0010048967	0.0020588120	2.27077703696544E-008	100	100	100	0	0	1	-360	360	;
	101	105	0.0009211553	0.0018872444	2.08154561721832E-008	100	100	100	0	0	1	-360	360	;
	105	108	0.0010886381	0.0022303797	2.46000845671256E-008	100	100	100	0	0	1	-360	360	;
	13	18	0.0027634660	0.0056617331	6.24463685165496E-008	100	100	100	0	0	1	-360	360	;
	18	21	0.0010048967	0.0020588120	2.27077703696544E-008	100	100	100	0	0	1	-360	360	;
	21	23	0.0008374139	0.0017156767	1.89231419747120E-008	100	100	100	0	0	1	-360	360	;
	23	25	0.0009211553	0.0018872444	2.08154561721832E-008	100	100	100	0	0	1	-360	360	;
	25	28	0.0006699312	0.0013725413	1.51385135797696E-008	100	100	100	0	0	1	-360	360	;
	28	29	0.0010048967	0.0020588120	2.27077703696544E-008	100	100	100	0	0	1	-360	360	;
	29	30	0.0011723795	0.0024019474	2.64923987645968E-008	100	100	100	0	0	1	-360	360	;
	35	40	0.0008374139	0.0017156767	1.89231419747120E-008	100	100	100	0	0	1	-360	360	;
	40	42	0.0008374139	0.0017156767	1.89231419747120E-008	100	100	100	0	0	1	-360	360	;
	42	44	0.0006699312	0.0013725413	1.51385135797696E-008	100	100	100	0	0	1	-360	360	;
	44	47	0.0008374139	0.0017156767	1.89231419747120E-008	100	100	100	0	0	1	-360	360	;
	47	48	0.0005024484	0.0010294060	1.13538851848272E-008	100	100	100	0	0	1	-360	360	;
	47	49	0.0008374139	0.0017156767	1.89231419747120E-008	100	100	100	0	0	1	-360	360	;
	49	50	0.0008374139	0.0017156767	1.89231419747120E-008	100	100	100	0	0	1	-360	360	;
	50	51	0.0008374139	0.0017156767	1.89231419747120E-008	100	100	100	0	0	1	-360	360	;
	1	149	0.0013398623	0.0027450827	3.02770271595392E-008	100	100	100	0	0	1	-360	360	;
	30	250	0.0013398623	0.0027450827	3.02770271595392E-008	100	100	100	0	0	1	-360	360	;
	35	135	0.0013398623	0.0027450827	3.02770271595392E-008	100	100	100	0	0	1	-360	360	;
	52	152	0.0013398623	0.0027450827	3.02770271595392E-008	100	100	100	0	0	1	-360	360	;
	93	94	0.0013398623	0.0027450827	3.02770271595392E-008	100	100	100	0	0	1	-360	360	;
	51	151	0.0013398623	0.0027450827	3.02770271595392E-008	100	100	100	0	0	1	-360	360	;
	108	300	0.0013398623	0.0027450827	3.02770271595392E-008	100	100	100	0	0	1	-360	360	;
	101	197	0.0013398623	0.0027450827	3.02770271595392E-008	100	100	100	0	0	1	-360	360	;
	100	450	0.0013398623	0.0027450827	3.02770271595392E-008	100	100	100	0	0	1	-360	360	;
	67	160	0.0013398623	0.0027450827	3.02770271595392E-008	100	100	100	0	0	1	-360	360	;
	60	61	0.0013398623	0.0027450827	3.02770271595392E-008	100	100	100	0	0	1	-360	360	;
	149	150	0.0013398623	0.0027450827	3.02770271595392E-008	100	100	100	0	0	1	-360	360	;
	18	135	0.0013398623	0.0027450827	3.02770271595392E-008	100	100	100	0	0	1	-360	360	;
	13	152	0.0013398623	0.0027450827	3.02770271595392E-008	100	100	100	0	0	1	-360	360	;
	54	94	0.0013398623	0.0027450827	3.02770271595392E-008	100	100	100	0	0	1	-360	360	;
	151	300	0.0013398623	0.0027450827	3.02770271595392E-008	100	100	100	0	0	1	-360	360	;
	97	197	0.0013398623	0.0027450827	3.02770271595392E-008	100	100	100	0	0	1	-360	360	;
	60	160	0.0013398623	0.0027450827	3.02770271595392E-008	100	100	100	0	0	1	-360	360	;
	150	860	0.0010048967	0.0020588120	2.27077703696544E-008	100	100	100	0	0	1	-360	360	;
	95	910	0.0010048967	0.0020588120	2.27077703696544E-008	100	100	100	0	0	1	-360	360	;
	611	617	0.0010048967	0.0020588120	2.27077703696544E-008	100	100	100	0	0	1	-360	360	;
	617	618	0.0006699312	0.0013725413	1.51385135797696E-008	100	100	100	0	0	1	-360	360	;
	618	623	0.0010048967	0.0020588120	2.27077703696544E-008	100	100	100	0	0	1	-360	360	;
	662	663	0.0006699312	0.0013725413	1.51385135797696E-008	100	100	100	0	0	1	-360	360	;
	663	664	0.0004187070	0.0008578383	9.46157098735599E-009	100	100	100	0	0	1	-360	360	;
	664	665	0.0009211553	0.0018872444	2.08154561721832E-008	100	100	100	0	0	1	-360	360	;
	665	666	0.0009211553	0.0018872444	2.08154561721832E-008	100	100	100	0	0	1	-360	360	;
	664	667	0.0011723795	0.0024019474	2.64923987645968E-008	100	100	100	0	0	1	-360	360	;
	667	670	0.0025122418	0.0051470300	5.67694259241360E-008	100	100	100	0	0	1	-360	360	;
	670	672	0.0027749546	0.0013221274	1.83926822251266E-007	100	100	100	0	0	1	-360	360	;
	672	673	0.0019424682	0.0009254892	1.28748775575886E-007	100	100	100	0	0	1	-360	360	;
	673	674	0.0038849364	0.0018509784	2.57497551151773E-007	100	100	100	0	0	1	-360	360	;
	674	675	0.0047174228	0.0022476166	3.12675597827153E-007	100	100	100	0	0	1	-360	360	;
	675	676	0.0036074409	0.0017187657	2.39104868926646E-007	100	100	100	0	0	1	-360	360	;
	677	682	0.0009211553	0.0018872444	2.08154561721832E-008	100	100	100	0	0	1	-360	360	;
	682	686	0.0006699312	0.0013725413	1.51385135797696E-008	100	100	100	0	0	1	-360	360	;
	686	687	0.0013398623	0.0027450827	3.02770271595392E-008	100	100	100	0	0	1	-360	360	;
	687	688	0.0003349656	0.0006862707	7.56925678988480E-009	100	100	100	0	0	1	-360	360	;
	688	689	0.0007536726	0.0015441090	1.70000000000000E-008	100	100	100	0	0	1	-360	360	;
	688	690	0.0015910865	0.0032597857	3.60000000000000E-008	100	100	100	0	0	1	-360	360	;
	690	691	0.0015910865	0.0032597857	3.60000000000000E-008	100	100	100	0	0	1	-360	360	;
	691	692	0.0008374139	0.0017156767	1.89231419747120E-008	100	100	100	0	0	1	-360	360	;
	692	693	0.0008374139	0.0017156767	1.89231419747120E-008	100	100	100	0	0	1	-360	360	;
	686	696	0.0023447590	0.0048038947	5.30000000000000E-008	100	100	100	0	0	1	-360	360	;
	696	697	0.0015073451	0.0030882180	3.40616555544816E-008	100	100	100	0	0	1	-360	360	;
	697	699	0.0009211553	0.0018872444	2.08154561721832E-008	100	100	100	0	0	1	-360	360	;
	699	701	0.0007536726	0.0015441090	1.70000000000000E-008	100	100	100	0	0	1	-360	360	;
	701	703	0.0007536726	0.0015441090	1.70000000000000E-008	100	100	100	0	0	1	-360	360	;
	703	705	0.0010048967	0.0020588120	2.27077703696544E-008	100	100	100	0	0	1	-360	360	;
	677	707	0.0008374139	0.0017156767	1.89231419747120E-008	100	100	100	0	0	1	-360	360	;
	707	708	0.0009211553	0.0018872444	2.08154561721832E-008	100	100	100	0	0	1	-360	360	;
	708	709	0.0018423107	0.0037744887	4.16309123443664E-008	100	100	100	0	0	1	-360	360	;
	709	710	0.0010048967	0.0020588120	2.27077703696544E-008	100	100	100	0	0	1	-360	360	;
	711	715	0.0009211553	0.0018872444	2.08154561721832E-008	100	100	100	0	0	1	-360	360	;
	715	718	0.0010886381	0.0022303797	2.46000845671256E-008	100	100	100	0	0	1	-360	360	;
	623	628	0.0027634660	0.0056617331	6.24463685165496E-008	100	100	100	0	0	1	-360	360	;
	628	631	0.0010048967	0.0020588120	2.27077703696544E-008	100	100	100	0	0	1	-360	360	;
	631	633	0.0008374139	0.0017156767	1.89231419747120E-008	100	100	100	0	0	1	-360	360	;
	633	635	0.0009211553	0.0018872444	2.08154561721832E-008	100	100	100	0	0	1	-360	360	;
	635	638	0.0006699312	0.0013725413	1.51385135797696E-008	100	100	100	0	0	1	-360	360	;
	638	639	0.0010048967	0.0020588120	2.27077703696544E-008	100	100	100	0	0	1	-360	360	;
	639	640	0.0011723795	0.0024019474	2.64923987645968E-008	100	100	100	0	0	1	-360	360	;
	645	650	0.0008374139	0.0017156767	1.89231419747120E-008	100	100	100	0	0	1	-360	360	;
	650	652	0.0008374139	0.0017156767	1.89231419747120E-008	100	100	100	0	0	1	-360	360	;
	652	654	0.0006699312	0.0013725413	1.51385135797696E-008	100	100	100	0	0	1	-360	360	;
	654	657	0.0008374139	0.0017156767	1.89231419747120E-008	100	100	100	0	0	1	-360	360	;
	657	658	0.0005024484	0.0010294060	1.13538851848272E-008	100	100	100	0	0	1	-360	360	;
	657	659	0.0008374139	0.0017156767	1.89231419747120E-008	100	100	100	0	0	1	-360	360	;
	659	660	0.0008374139	0.0017156767	1.89231419747120E-008	100	100	100	0	0	1	-360	360	;
	660	661	0.0008374139	0.0017156767	1.89231419747120E-008	100	100	100	0	0	1	-360	360	;
	611	759	0.0013398623	0.0027450827	3.02770271595392E-008	100	100	100	0	0	1	-360	360	;
	640	860	0.0013398623	0.0027450827	3.02770271595392E-008	100	100	100	0	0	1	-360	360	;
	645	745	0.0013398623	0.0027450827	3.02770271595392E-008	100	100	100	0	0	1	-360	360	;
	662	762	0.0013398623	0.0027450827	3.02770271595392E-008	100	100	100	0	0	1	-360	360	;
	703	704	0.0013398623	0.0027450827	3.02770271595392E-008	100	100	100	0	0	1	-360	360	;
	661	761	0.0013398623	0.0027450827	3.02770271595392E-008	100	100	100	0	0	1	-360	360	;
	718	910	0.0013398623	0.0027450827	3.02770271595392E-008	100	100	100	0	0	1	-360	360	;
	711	807	0.0013398623	0.0027450827	3.02770271595392E-008	100	100	100	0	0	1	-360	360	;
	710	1060	0.0013398623	0.0027450827	3.02770271595392E-008	100	100	100	0	0	1	-360	360	;
	677	770	0.0013398623	0.0027450827	3.02770271595392E-008	100	100	100	0	0	1	-360	360	;
	670	671	0.0013398623	0.0027450827	3.02770271595392E-008	100	100	100	0	0	1	-360	360	;
	759	760	0.0013398623	0.0027450827	3.02770271595392E-008	100	100	100	0	0	1	-360	360	;
	628	745	0.0013398623	0.0027450827	3.02770271595392E-008	100	100	100	0	0	1	-360	360	;
	623	762	0.0013398623	0.0027450827	3.02770271595392E-008	100	100	100	0	0	1	-360	360	;
	664	704	0.0013398623	0.0027450827	3.02770271595392E-008	100	100	100	0	0	1	-360	360	;
	761	910	0.0013398623	0.0027450827	3.02770271595392E-008	100	100	100	0	0	1	-360	360	;
	707	807	0.0013398623	0.0027450827	3.02770271595392E-008	100	100	100	0	0	1	-360	360	;
	670	770	0.0013398623	0.0027450827	3.02770271595392E-008	100	100	100	0	0	1	-360	360	;
	300	1470	0.0010048967	0.0020588120	2.27077703696544E-008	100	100	100	0	0	1	-360	360	;
	1315	2130	0.0010048967	0.0020588120	2.27077703696544E-008	100	100	100	0	0	1	-360	360	;
	1221	1227	0.0010048967	0.0020588120	2.27077703696544E-008	100	100	100	0	0	1	-360	360	;
	1227	1228	0.0006699312	0.0013725413	1.51385135797696E-008	100	100	100	0	0	1	-360	360	;
	1228	1233	0.0010048967	0.0020588120	2.27077703696544E-008	100	100	100	0	0	1	-360	360	;
	1272	1273	0.0006699312	0.0013725413	1.51385135797696E-008	100	100	100	0	0	1	-360	360	;
	1273	1274	0.0004187070	0.0008578383	9.46157098735599E-009	100	100	100	0	0	1	-360	360	;
	1274	1275	0.0009211553	0.0018872444	2.08154561721832E-008	100	100	100	0	0	1	-360	360	;
	1275	1276	0.0009211553	0.0018872444	2.08154561721832E-008	100	100	100	0	0	1	-360	360	;
	1274	1277	0.0011723795	0.0024019474	2.64923987645968E-008	100	100	100	0	0	1	-360	360	;
	1277	1280	0.0025122418	0.0051470300	5.67694259241360E-008	100	100	100	0	0	1	-360	360	;
	1280	1282	0.0027749546	0.0013221274	1.83926822251266E-007	100	100	100	0	0	1	-360	360	;
	1282	1283	0.0019424682	0.0009254892	1.28748775575886E-007	100	100	100	0	0	1	-360	360	;
	1283	1284	0.0038849364	0.0018509784	2.57497551151773E-007	100	100	100	0	0	1	-360	360	;
	1284	1285	0.0047174228	0.0022476166	3.12675597827153E-007	100	100	100	0	0	1	-360	360	;
	1285	1286	0.0036074409	0.0017187657	2.39104868926646E-007	100	100	100	0	0	1	-360	360	;
	1287	1292	0.0009211553	0.0018872444	2.08154561721832E-008	100	100	100	0	0	1	-360	360	;
	1292	1296	0.0006699312	0.0013725413	1.51385135797696E-008	100	100	100	0	0	1	-360	360	;
	1296	1297	0.0013398623	0.0027450827	3.02770271595392E-008	100	100	100	0	0	1	-360	360	;
	1297	1298	0.0003349656	0.0006862707	7.56925678988480E-009	100	100	100	0	0	1	-360	360	;
	1298	1299	0.0007536726	0.0015441090	1.70000000000000E-008	100	100	100	0	0	1	-360	360	;
	1298	1300	0.0015910865	0.0032597857	3.60000000000000E-008	100	100	100	0	0	1	-360	360	;
	1300	1301	0.0015910865	0.0032597857	3.60000000000000E-008	100	100	100	0	0	1	-360	360	;
	1301	1302	0.0008374139	0.0017156767	1.89231419747120E-008	100	100	100	0	0	1	-360	360	;
	1302	1303	0.0008374139	0.0017156767	1.89231419747120E-008	100	100	100	0	0	1	-360	360	;
	1296	1306	0.0023447590	0.0048038947	5.30000000000000E-008	100	100	100	0	0	1	-360	360	;
	1306	1307	0.0015073451	0.0030882180	3.40616555544816E-008	100	100	100	0	0	1	-360	360	;
	1307	1309	0.0009211553	0.0018872444	2.08154561721832E-008	100	100	100	0	0	1	-360	360	;
	1309	1311	0.0007536726	0.0015441090	1.70000000000000E-008	100	100	100	0	0	1	-360	360	;
	1311	1313	0.0007536726	0.0015441090	1.70000000000000E-008	100	100	100	0	0	1	-360	360	;
	1313	1315	0.0010048967	0.0020588120	2.27077703696544E-008	100	100	100	0	0	1	-360	360	;
	1287	1317	0.0008374139	0.0017156767	1.89231419747120E-008	100	100	100	0	0	1	-360	360	;
	1317	1318	0.0009211553	0.0018872444	2.08154561721832E-008	100	100	100	0	0	1	-360	360	;
	1318	1319	0.0018423107	0.0037744887	4.16309123443664E-008	100	100	100	0	0	1	-360	360	;
	1319	1320	0.0010048967	0.0020588120	2.27077703696544E-008	100	100	100	0	0	1	-360	360	;
	1321	1325	0.0009211553	0.0018872444	2.08154561721832E-008	100	100	100	0	0	1	-360	360	;
	1325	1328	0.0010886381	0.0022303797	2.46000845671256E-008	100	100	100	0	0	1	-360	360	;
	1233	1238	0.0027634660	0.0056617331	6.24463685165496E-008	100	100	100	0	0	1	-360	360	;
	1238	1241	0.0010048967	0.0020588120	2.27077703696544E-008	100	100	100	0	0	1	-360	360	;
	1241	1243	0.0008374139	0.0017156767	1.89231419747120E-008	100	100	100	0	0	1	-360	360	;
	1243	1245	0.0009211553	0.0018872444	2.08154561721832E-008	100	100	100	0	0	1	-360	360	;
	1245	1248	0.0006699312	0.0013725413	1.51385135797696E-008	100	100	100	0	0	1	-360	360	;
	1248	1249	0.0010048967	0.0020588120	2.27077703696544E-008	100	100	100	0	0	1	-360	360	;
	1249	1250	0.0011723795	0.0024019474	2.64923987645968E-008	100	100	100	0	0	1	-360	360	;
	1255	1260	0.0008374139	0.0017156767	1.89231419747120E-008	100	100	100	0	0	1	-360	360	;
	1260	1262	0.0008374139	0.0017156767	1.89231419747120E-008	100	100	100	0	0	1	-360	360	;
	1262	1264	0.0006699312	0.0013725413	1.51385135797696E-008	100	100	100	0	0	1	-360	360	;
	1264	1267	0.0008374139	0.0017156767	1.89231419747120E-008	100	100	100	0	0	1	-360	360	;
	1267	1268	0.0005024484	0.0010294060	1.13538851848272E-008	100	100	100	0	0	1	-360	360	;
	1267	1269	0.0008374139	0.0017156767	1.89231419747120E-008	100	100	100	0	0	1	-360	360	;
	1269	1270	0.0008374139	0.0017156767	1.89231419747120E-008	100	100	100	0	0	1	-360	360	;
	1270	1271	0.0008374139	0.0017156767	1.89231419747120E-008	100	100	100	0	0	1	-360	360	;
	1221	1369	0.0013398623	0.0027450827	3.02770271595392E-008	100	100	100	0	0	1	-360	360	;
	1250	1470	0.0013398623	0.0027450827	3.02770271595392E-008	100	100	100	0	0	1	-360	360	;
	1255	1355	0.0013398623	0.0027450827	3.02770271595392E-008	100	100	100	0	0	1	-360	360	;
	1272	1372	0.0013398623	0.0027450827	3.02770271595392E-008	100	100	100	0	0	1	-360	360	;
	1313	1314	0.0013398623	0.0027450827	3.02770271595392E-008	100	100	100	0	0	1	-360	360	;
	1271	1371	0.0013398623	0.0027450827	3.02770271595392E-008	100	100	100	0	0	1	-360	360	;
	1328	1520	0.0013398623	0.0027450827	3.02770271595392E-008	100	100	100	0	0	1	-360	360	;
	1321	1417	0.0013398623	0.0027450827	3.02770271595392E-008	100	100	100	0	0	1	-360	360	;
	1320	1670	0.0013398623	0.0027450827	3.02770271595392E-008	100	100	100	0	0	1	-360	360	;
	1287	1380	0.0013398623	0.0027450827	3.02770271595392E-008	100	100	100	0	0	1	-360	360	;
...

%copy 2






%new switched branches (connections to previous 8 copies)
	1670	4810	0.0010048967	0.0020588120	2.27077703696544E-008	100	100	100	0	0	1	-360	360	;
	2280	5420	0.0010048967	0.0020588120	2.27077703696544E-008	100	100	100	0	0	1	-360	360	;
	3950	8310	0.0010048967	0.0020588120	2.27077703696544E-008	100	100	100	0	0	1	-360	360	;
	4150	7700	0.0010048967	0.0020588120	2.27077703696544E-008	100	100	100	0	0	1	-360	360	;

	4561	4567	0.0010048967	0.0020588120	2.27077703696544E-008	100	100	100	0	0	1	-360	360	;
	4567	4568	0.0006699312	0.0013725413	1.51385135797696E-008	100	100	100	0	0	1	-360	360	;
	4568	4573	0.0010048967	0.0020588120	2.27077703696544E-008	100	100	100	0	0	1	-360	360	;
	4612	4613	0.0006699312	0.0013725413	1.51385135797696E-008	100	100	100	0	0	1	-360	360	;
	4613	4614	0.0004187070	0.0008578383	9.46157098735599E-009	100	100	100	0	0	1	-360	360	;
	4614	4615	0.0009211553	0.0018872444	2.08154561721832E-008	100	100	100	0	0	1	-360	360	;
	4615	4616	0.0009211553	0.0018872444	2.08154561721832E-008	100	100	100	0	0	1	-360	360	;
	4614	4617	0.0011723795	0.0024019474	2.64923987645968E-008	100	100	100	0	0	1	-360	360	;
	4617	4620	0.0025122418	0.0051470300	5.67694259241360E-008	100	100	100	0	0	1	-360	360	;
	4620	4622	0.0027749546	0.0013221274	1.83926822251266E-007	100	100	100	0	0	1	-360	360	;
	4622	4623	0.0019424682	0.0009254892	1.28748775575886E-007	100	100	100	0	0	1	-360	360	;
	4623	4624	0.0038849364	0.0018509784	2.57497551151773E-007	100	100	100	0	0	1	-360	360	;
	4624	4625	0.0047174228	0.0022476166	3.12675597827153E-007	100	100	100	0	0	1	-360	360	;
	4625	4626	0.0036074409	0.0017187657	2.39104868926646E-007	100	100	100	0	0	1	-360	360	;
	4627	4632	0.0009211553	0.0018872444	2.08154561721832E-008	100	100	100	0	0	1	-360	360	;
	4632	4636	0.0006699312	0.0013725413	1.51385135797696E-008	100	100	100	0	0	1	-360	360	;
	4636	4637	0.0013398623	0.0027450827	3.02770271595392E-008	100	100	100	0	0	1	-360	360	;
	4637	4638	0.0003349656	0.0006862707	7.56925678988480E-009	100	100	100	0	0	1	-360	360	;
	4638	4639	0.0007536726	0.0015441090	1.70000000000000E-008	100	100	100	0	0	1	-360	360	;
	4638	4640	0.0015910865	0.0032597857	3.60000000000000E-008	100	100	100	0	0	1	-360	360	;
	4640	4641	0.0015910865	0.0032597857	3.60000000000000E-008	100	100	100	0	0	1	-360	360	;
	4641	4642	0.0008374139	0.0017156767	1.89231419747120E-008	100	100	100	0	0	1	-360	360	;
	4642	4643	0.0008374139	0.0017156767	1.89231419747120E-008	100	100	100	0	0	1	-360	360	;
	4636	4646	0.0023447590	0.0048038947	5.30000000000000E-008	100	100	100	0	0	1	-360	360	;
	4646	4647	0.0015073451	0.0030882180	3.40616555544816E-008	100	100	100	0	0	1	-360	360	;
	4647	4649	0.0009211553	0.0018872444	2.08154561721832E-008	100	100	100	0	0	1	-360	360	;
	4649	4651	0.0007536726	0.0015441090	1.70000000000000E-008	100	100	100	0	0	1	-360	360	;
	4651	4653	0.0007536726	0.0015441090	1.70000000000000E-008	100	100	100	0	0	1	-360	360	;
	4653	4655	0.0010048967	0.0020588120	2.27077703696544E-008	100	100	100	0	0	1	-360	360	;
	4627	4657	0.0008374139	0.0017156767	1.89231419747120E-008	100	100	100	0	0	1	-360	360	;
	4657	4658	0.0009211553	0.0018872444	2.08154561721832E-008	100	100	100	0	0	1	-360	360	;
	4658	4659	0.0018423107	0.0037744887	4.16309123443664E-008	100	100	100	0	0	1	-360	360	;
	4659	4660	0.0010048967	0.0020588120	2.27077703696544E-008	100	100	100	0	0	1	-360	360	;
	4661	4665	0.0009211553	0.0018872444	2.08154561721832E-008	100	100	100	0	0	1	-360	360	;
	4665	4668	0.0010886381	0.0022303797	2.46000845671256E-008	100	100	100	0	0	1	-360	360	;
	4573	4578	0.0027634660	0.0056617331	6.24463685165496E-008	100	100	100	0	0	1	-360	360	;
	4578	4581	0.0010048967	0.0020588120	2.27077703696544E-008	100	100	100	0	0	1	-360	360	;
	4581	4583	0.0008374139	0.0017156767	1.89231419747120E-008	100	100	100	0	0	1	-360	360	;
	4583	4585	0.0009211553	0.0018872444	2.08154561721832E-008	100	100	100	0	0	1	-360	360	;
	4585	4588	0.0006699312	0.0013725413	1.51385135797696E-008	100	100	100	0	0	1	-360	360	;
	4588	4589	0.0010048967	0.0020588120	2.27077703696544E-008	100	100	100	0	0	1	-360	360	;
	4589	4590	0.0011723795	0.0024019474	2.64923987645968E-008	100	100	100	0	0	1	-360	360	;
	4595	4600	0.0008374139	0.0017156767	1.89231419747120E-008	100	100	100	0	0	1	-360	360	;
	4600	4602	0.0008374139	0.0017156767	1.89231419747120E-008	100	100	100	0	0	1	-360	360	;
	4602	4604	0.0006699312	0.0013725413	1.51385135797696E-008	100	100	100	0	0	1	-360	360	;
	4604	4607	0.0008374139	0.0017156767	1.89231419747120E-008	100	100	100	0	0	1	-360	360	;
	4607	4608	0.0005024484	0.0010294060	1.13538851848272E-008	100	100	100	0	0	1	-360	360	;
	4607	4609	0.0008374139	0.0017156767	1.89231419747120E-008	100	100	100	0	0	1	-360	360	;
	4609	4610	0.0008374139	0.0017156767	1.89231419747120E-008	100	100	100	0	0	1	-360	360	;
	4610	4611	0.0008374139	0.0017156767	1.89231419747120E-008	100	100	100	0	0	1	-360	360	;
	4561	4709	0.0013398623	0.0027450827	3.02770271595392E-008	100	100	100	0	0	1	-360	360	;
	4590	4810	0.0013398623	0.0027450827	3.02770271595392E-008	100	100	100	0	0	1	-360	360	;
	4595	4695	0.0013398623	0.0027450827	3.02770271595392E-008	100	100	100	0	0	1	-360	360	;
	4612	4712	0.0013398623	0.0027450827	3.02770271595392E-008	100	100	100	0	0	1	-360	360	;
	4653	4654	0.0013398623	0.0027450827	3.02770271595392E-008	100	100	100	0	0	1	-360	360	;
	4611	4711	0.0013398623	0.0027450827	3.02770271595392E-008	100	100	100	0	0	1	-360	360	;
	4668	4860	0.0013398623	0.0027450827	3.02770271595392E-008	100	100	100	0	0	1	-360	360	;
	4661	4757	0.0013398623	0.0027450827	3.02770271595392E-008	100	100	100	0	0	1	-360	360	;
	4660	5010	0.0013398623	0.0027450827	3.02770271595392E-008	100	100	100	0	0	1	-360	360	;
	4627	4720	0.0013398623	0.0027450827	3.02770271595392E-008	100	100	100	0	0	1	-360	360	;
	4620	4621	0.0013398623	0.0027450827	3.02770271595392E-008	100	100	100	0	0	1	-360	360	;
	4709	4710	0.0013398623	0.0027450827	3.02770271595392E-008	100	100	100	0	0	1	-360	360	;
	4578	4695	0.0013398623	0.0027450827	3.02770271595392E-008	100	100	100	0	0	1	-360	360	;
	4573	4712	0.0013398623	0.0027450827	3.02770271595392E-008	100	100	100	0	0	1	-360	360	;
	4614	4654	0.0013398623	0.0027450827	3.02770271595392E-008	100	100	100	0	0	1	-360	360	;
	4711	4860	0.0013398623	0.0027450827	3.02770271595392E-008	100	100	100	0	0	1	-360	360	;
	4657	4757	0.0013398623	0.0027450827	3.02770271595392E-008	100	100	100	0	0	1	-360	360	;
	4620	4720	0.0013398623	0.0027450827	3.02770271595392E-008	100	100	100	0	0	1	-360	360	;
	4710	5420	0.0010048967	0.0020588120	2.27077703696544E-008	100	100	100	0	0	1	-360	360	;
	4655	5470	0.0010048967	0.0020588120	2.27077703696544E-008	100	100	100	0	0	1	-360	360	;
	5171	5177	0.0010048967	0.0020588120	2.27077703696544E-008	100	100	100	0	0	1	-360	360	;
	5177	5178	0.0006699312	0.0013725413	1.51385135797696E-008	100	100	100	0	0	1	-360	360	;
	5178	5183	0.0010048967	0.0020588120	2.27077703696544E-008	100	100	100	0	0	1	-360	360	;
	5222	5223	0.0006699312	0.0013725413	1.51385135797696E-008	100	100	100	0	0	1	-360	360	;
	5223	5224	0.0004187070	0.0008578383	9.46157098735599E-009	100	100	100	0	0	1	-360	360	;
	5224	5225	0.0009211553	0.0018872444	2.08154561721832E-008	100	100	100	0	0	1	-360	360	;
	5225	5226	0.0009211553	0.0018872444	2.08154561721832E-008	100	100	100	0	0	1	-360	360	;
	5224	5227	0.0011723795	0.0024019474	2.64923987645968E-008	100	100	100	0	0	1	-360	360	;
	5227	5230	0.0025122418	0.0051470300	5.67694259241360E-008	100	100	100	0	0	1	-360	360	;
	5230	5232	0.0027749546	0.0013221274	1.83926822251266E-007	100	100	100	0	0	1	-360	360	;
	5232	5233	0.0019424682	0.0009254892	1.28748775575886E-007	100	100	100	0	0	1	-360	360	;
	5233	5234	0.0038849364	0.0018509784	2.57497551151773E-007	100	100	100	0	0	1	-360	360	;
	5234	5235	0.0047174228	0.0022476166	3.12675597827153E-007	100	100	100	0	0	1	-360	360	;
	5235	5236	0.0036074409	0.0017187657	2.39104868926646E-007	100	100	100	0	0	1	-360	360	;
	5237	5242	0.0009211553	0.0018872444	2.08154561721832E-008	100	100	100	0	0	1	-360	360	;
	5242	5246	0.0006699312	0.0013725413	1.51385135797696E-008	100	100	100	0	0	1	-360	360	;
	5246	5247	0.0013398623	0.0027450827	3.02770271595392E-008	100	100	100	0	0	1	-360	360	;
	5247	5248	0.0003349656	0.0006862707	7.56925678988480E-009	100	100	100	0	0	1	-360	360	;
	5248	5249	0.0007536726	0.0015441090	1.70000000000000E-008	100	100	100	0	0	1	-360	360	;
	5248	5250	0.0015910865	0.0032597857	3.60000000000000E-008	100	100	100	0	0	1	-360	360	;
	5250	5251	0.0015910865	0.0032597857	3.60000000000000E-008	100	100	100	0	0	1	-360	360	;
	5251	5252	0.0008374139	0.0017156767	1.89231419747120E-008	100	100	100	0	0	1	-360	360	;
	5252	5253	0.0008374139	0.0017156767	1.89231419747120E-008	100	100	100	0	0	1	-360	360	;
	5246	5256	0.0023447590	0.0048038947	5.30000000000000E-008	100	100	100	0	0	1	-360	360	;
	5256	5257	0.0015073451	0.0030882180	3.40616555544816E-008	100	100	100	0	0	1	-360	360	;
	5257	5259	0.0009211553	0.0018872444	2.08154561721832E-008	100	100	100	0	0	1	-360	360	;
	5259	5261	0.0007536726	0.0015441090	1.70000000000000E-008	100	100	100	0	0	1	-360	360	;
	5261	5263	0.0007536726	0.0015441090	1.70000000000000E-008	100	100	100	0	0	1	-360	360	;
	5263	5265	0.0010048967	0.0020588120	2.27077703696544E-008	100	100	100	0	0	1	-360	360	;
	5237	5267	0.0008374139	0.0017156767	1.89231419747120E-008	100	100	100	0	0	1	-360	360	;
	5267	5268	0.0009211553	0.0018872444	2.08154561721832E-008	100	100	100	0	0	1	-360	360	;
	5268	5269	0.0018423107	0.0037744887	4.16309123443664E-008	100	100	100	0	0	1	-360	360	;
	5269	5270	0.0010048967	0.0020588120	2.27077703696544E-008	100	100	100	0	0	1	-360	360	;
	5271	5275	0.0009211553	0.0018872444	2.08154561721832E-008	100	100	100	0	0	1	-360	360	;
	5275	5278	0.0010886381	0.0022303797	2.46000845671256E-008	100	100	100	0	0	1	-360	360	;
	5183	5188	0.0027634660	0.0056617331	6.24463685165496E-008	100	100	100	0	0	1	-360	360	;
	5188	5191	0.0010048967	0.0020588120	2.27077703696544E-008	100	100	100	0	0	1	-360	360	;
	5191	5193	0.0008374139	0.0017156767	1.89231419747120E-008	100	100	100	0	0	1	-360	360	;
	5193	5195	0.0009211553	0.0018872444	2.08154561721832E-008	100	100	100	0	0	1	-360	360	;
	5195	5198	0.0006699312	0.0013725413	1.51385135797696E-008	100	100	100	0	0	1	-360	360	;
	5198	5199	0.0010048967	0.0020588120	2.27077703696544E-008	100	100	100	0	0	1	-360	360	;
	5199	5200	0.0011723795	0.0024019474	2.64923987645968E-008	100	100	100	0	0	1	-360	360	;
	5205	5210	0.0008374139	0.0017156767	1.89231419747120E-008	100	100	100	0	0	1	-360	360	;
	5210	5212	0.0008374139	0.0017156767	1.89231419747120E-008	100	100	100	0	0	1	-360	360	;
	5212	5214	0.0006699312	0.0013725413	1.51385135797696E-008	100	100	100	0	0	1	-360	360	;
	5214	5217	0.0008374139	0.0017156767	1.89231419747120E-008	100	100	100	0	0	1	-360	360	;
	5217	5218	0.0005024484	0.0010294060	1.13538851848272E-008	100	100	100	0	0	1	-360	360	;
	5217	5219	0.0008374139	0.0017156767	1.89231419747120E-008	100	100	100	0	0	1	-360	360	;
	5219	5220	0.0008374139	0.0017156767	1.89231419747120E-008	100	100	100	0	0	1	-360	360	;
	5220	5221	0.0008374139	0.0017156767	1.89231419747120E-008	100	100	100	0	0	1	-360	360	;
	5171	5319	0.0013398623	0.0027450827	3.02770271595392E-008	100	100	100	0	0	1	-360	360	;
	5200	5420	0.0013398623	0.0027450827	3.02770271595392E-008	100	100	100	0	0	1	-360	360	;
	5205	5305	0.0013398623	0.0027450827	3.02770271595392E-008	100	100	100	0	0	1	-360	360	;
	5222	5322	0.0013398623	0.0027450827	3.02770271595392E-008	100	100	100	0	0	1	-360	360	;
	5263	5264	0.0013398623	0.0027450827	3.02770271595392E-008	100	100	100	0	0	1	-360	360	;
	5221	5321	0.0013398623	0.0027450827	3.02770271595392E-008	100	100	100	0	0	1	-360	360	;
	5278	5470	0.0013398623	0.0027450827	3.02770271595392E-008	100	100	100	0	0	1	-360	360	;
	5271	5367	0.0013398623	0.0027450827	3.02770271595392E-008	100	100	100	0	0	1	-360	360	;
	5270	5620	0.0013398623	0.0027450827	3.02770271595392E-008	100	100	100	0	0	1	-360	360	;
	5237	5330	0.0013398623	0.0027450827	3.02770271595392E-008	100	100	100	0	0	1	-360	360	;
	5230	5231	0.0013398623	0.0027450827	3.02770271595392E-008	100	100	100	0	0	1	-360	360	;
	5319	5320	0.0013398623	0.0027450827	3.02770271595392E-008	100	100	100	0	0	1	-360	360	;
	5188	5305	0.0013398623	0.0027450827	3.02770271595392E-008	100	100	100	0	0	1	-360	360	;
	5183	5322	0.0013398623	0.0027450827	3.02770271595392E-008	100	100	100	0	0	1	-360	360	;
	5224	5264	0.0013398623	0.0027450827	3.02770271595392E-008	100	100	100	0	0	1	-360	360	;
	5321	5470	0.0013398623	0.0027450827	3.02770271595392E-008	100	100	100	0	0	1	-360	360	;
	5267	5367	0.0013398623	0.0027450827	3.02770271595392E-008	100	100	100	0	0	1	-360	360	;
	5230	5330	0.0013398623	0.0027450827	3.02770271595392E-008	100	100	100	0	0	1	-360	360	;
	4860	6030	0.0010048967	0.0020588120	2.27077703696544E-008	100	100	100	0	0	1	-360	360	;
	5875	6690	0.0010048967	0.0020588120	2.27077703696544E-008	100	100	100	0	0	1	-360	360	;
	5781	5787	0.0010048967	0.0020588120	2.27077703696544E-008	100	100	100	0	0	1	-360	360	;
	5787	5788	0.0006699312	0.0013725413	1.51385135797696E-008	100	100	100	0	0	1	-360	360	;
	5788	5793	0.0010048967	0.0020588120	2.27077703696544E-008	100	100	100	0	0	1	-360	360	;
	5832	5833	0.0006699312	0.0013725413	1.51385135797696E-008	100	100	100	0	0	1	-360	360	;
	5833	5834	0.0004187070	0.0008578383	9.46157098735599E-009	100	100	100	0	0	1	-360	360	;
	5834	5835	0.0009211553	0.0018872444	2.08154561721832E-008	100	100	100	0	0	1	-360	360	;
	5835	5836	0.0009211553	0.0018872444	2.08154561721832E-008	100	100	100	0	0	1	-360	360	;
	5834	5837	0.0011723795	0.0024019474	2.64923987645968E-008	100	100	100	0	0	1	-360	360	;
	5837	5840	0.0025122418	0.0051470300	5.67694259241360E-008	100	100	100	0	0	1	-360	360	;
	5840	5842	0.0027749546	0.0013221274	1.83926822251266E-007	100	100	100	0	0	1	-360	360	;
	5842	5843	0.0019424682	0.0009254892	1.28748775575886E-007	100	100	100	0	0	1	-360	360	;
	5843	5844	0.0038849364	0.0018509784	2.57497551151773E-007	100	100	100	0	0	1	-360	360	;
	5844	5845	0.0047174228	0.0022476166	3.12675597827153E-007	100	100	100	0	0	1	-360	360	;
	5845	5846	0.0036074409	0.0017187657	2.39104868926646E-007	100	100	100	0	0	1	-360	360	;
	5847	5852	0.0009211553	0.0018872444	2.08154561721832E-008	100	100	100	0	0	1	-360	360	;
	5852	5856	0.0006699312	0.0013725413	1.51385135797696E-008	100	100	100	0	0	1	-360	360	;
	5856	5857	0.0013398623	0.0027450827	3.02770271595392E-008	100	100	100	0	0	1	-360	360	;
	5857	5858	0.0003349656	0.0006862707	7.56925678988480E-009	100	100	100	0	0	1	-360	360	;
	5858	5859	0.0007536726	0.0015441090	1.70000000000000E-008	100	100	100	0	0	1	-360	360	;
	5858	5860	0.0015910865	0.0032597857	3.60000000000000E-008	100	100	100	0	0	1	-360	360	;
	5860	5861	0.0015910865	0.0032597857	3.60000000000000E-008	100	100	100	0	0	1	-360	360	;
	5861	5862	0.0008374139	0.0017156767	1.89231419747120E-008	100	100	100	0	0	1	-360	360	;
	5862	5863	0.0008374139	0.0017156767	1.89231419747120E-008	100	100	100	0	0	1	-360	360	;
	5856	5866	0.0023447590	0.0048038947	5.30000000000000E-008	100	100	100	0	0	1	-360	360	;
	5866	5867	0.0015073451	0.0030882180	3.40616555544816E-008	100	100	100	0	0	1	-360	360	;
	5867	5869	0.0009211553	0.0018872444	2.08154561721832E-008	100	100	100	0	0	1	-360	360	;
	5869	5871	0.0007536726	0.0015441090	1.70000000000000E-008	100	100	100	0	0	1	-360	360	;
	5871	5873	0.0007536726	0.0015441090	1.70000000000000E-008	100	100	100	0	0	1	-360	360	;
	5873	5875	0.0010048967	0.0020588120	2.27077703696544E-008	100	100	100	0	0	1	-360	360	;
	5847	5877	0.0008374139	0.0017156767	1.89231419747120E-008	100	100	100	0	0	1	-360	360	;
	5877	5878	0.0009211553	0.0018872444	2.08154561721832E-008	100	100	100	0	0	1	-360	360	;
	5878	5879	0.0018423107	0.0037744887	4.16309123443664E-008	100	100	100	0	0	1	-360	360	;
	5879	5880	0.0010048967	0.0020588120	2.27077703696544E-008	100	100	100	0	0	1	-360	360	;
	5881	5885	0.0009211553	0.0018872444	2.08154561721832E-008	100	100	100	0	0	1	-360	360	;
	5885	5888	0.0010886381	0.0022303797	2.46000845671256E-008	100	100	100	0	0	1	-360	360	;
	5793	5798	0.0027634660	0.0056617331	6.24463685165496E-008	100	100	100	0	0	1	-360	360	;
	5798	5801	0.0010048967	0.0020588120	2.27077703696544E-008	100	100	100	0	0	1	-360	360	;
	5801	5803	0.0008374139	0.0017156767	1.89231419747120E-008	100	100	100	0	0	1	-360	360	;
	5803	5805	0.0009211553	0.0018872444	2.08154561721832E-008	100	100	100	0	0	1	-360	360	;
	5805	5808	0.0006699312	0.0013725413	1.51385135797696E-008	100	100	100	0	0	1	-360	360	;
	5808	5809	0.0010048967	0.0020588120	2.27077703696544E-008	100	100	100	0	0	1	-360	360	;
	5809	5810	0.0011723795	0.0024019474	2.64923987645968E-008	100	100	100	0	0	1	-360	360	;
	5815	5820	0.0008374139	0.0017156767	1.89231419747120E-008	100	100	100	0	0	1	-360	360	;
	5820	5822	0.0008374139	0.0017156767	1.89231419747120E-008	100	100	100	0	0	1	-360	360	;
	5822	5824	0.0006699312	0.0013725413	1.51385135797696E-008	100	100	100	0	0	1	-360	360	;
	5824	5827	0.0008374139	0.0017156767	1.89231419747120E-008	100	100	100	0	0	1	-360	360	;
	5827	5828	0.0005024484	0.0010294060	1.13538851848272E-008	100	100	100	0	0	1	-360	360	;
	5827	5829	0.0008374139	0.0017156767	1.89231419747120E-008	100	100	100	0	0	1	-360	360	;
	5829	5830	0.0008374139	0.0017156767	1.89231419747120E-008	100	100	100	0	0	1	-360	360	;
	5830	5831	0.0008374139	0.0017156767	1.89231419747120E-008	100	100	100	0	0	1	-360	360	;
	5781	5929	0.0013398623	0.0027450827	3.02770271595392E-008	100	100	100	0	0	1	-360	360	;
	5810	6030	0.0013398623	0.0027450827	3.02770271595392E-008	100	100	100	0	0	1	-360	360	;
	5815	5915	0.0013398623	0.0027450827	3.02770271595392E-008	100	100	100	0	0	1	-360	360	;
	5832	5932	0.0013398623	0.0027450827	3.02770271595392E-008	100	100	100	0	0	1	-360	360	;
	5873	5874	0.0013398623	0.0027450827	3.02770271595392E-008	100	100	100	0	0	1	-360	360	;
	5831	5931	0.0013398623	0.0027450827	3.02770271595392E-008	100	100	100	0	0	1	-360	360	;
	5888	6080	0.0013398623	0.0027450827	3.02770271595392E-008	100	100	100	0	0	1	-360	360	;
	5881	5977	0.0013398623	0.0027450827	3.02770271595392E-008	100	100	100	0	0	1	-360	360	;
	5880	6230	0.0013398623	0.0027450827	3.02770271595392E-008	100	100	100	0	0	1	-360	360	;
	5847	5940	0.0013398623	0.0027450827	3.02770271595392E-008	100	100	100	0	0	1	-360	360	;
...

];

%%-----  OPF Data  -----%%
%% generator cost data
%	1	startup	shutdown	n	x1	y1	...	xn	yn
%	2	startup	shutdown	n	c(n-1)	...	c0
mpc.gencost = [
	2	0	0	3	0.01	40	0;
	2	0	0	3	0.01	40	0;
	2	0	0	3	0.01	40	0;
	2	0	0	3	0.01	40	0;
	2	0	0	3	0.01	40	0;
	2	0	0	3	0.01	40	0;
	2	0	0	3	0.01	40	0;
	2	0	0	3	0.01	40	0;

%copy 2



	2	0	0	3	0.01	40	0;
	2	0	0	3	0.01	40	0;
	2	0	0	3	0.01	40	0;
	2	0	0	3	0.01	40	0;
	2	0	0	3	0.01	40	0;
	2	0	0	3	0.01	40	0;
	2	0	0	3	0.01	40	0;
	2	0	0	3	0.01	40	0;
];
